/*--------------------------------*- C++ -*----------------------------------*\
| =========                 |                                                 |
| \\      /  F ield         | OpenFOAM: The Open Source CFD Toolbox           |
|  \\    /   O peration     | Version:  2.3.0                                 |
|   \\  /    A nd           | Web:      www.OpenFOAM.org                      |
|    \\/     M anipulation  |                                                 |
\*---------------------------------------------------------------------------*/
FoamFile
{
    version     2.0;
    format      ascii;
    class       polyBoundaryMesh;
    location    "constant/polyMesh";
    object      boundary;
}
// * * * * * * * * * * * * * * * * * * * * * * * * * * * * * * * * * * * * * //

5
(
    bottom_wall
    {
        type            patch;
        nFaces          10;
        startFace       180;
    }
    top_wall
    {
        type            patch;
        nFaces          10;
        startFace       190;
    }
    right_wall
    {
        type            wall;
        inGroups        1(wall);
        nFaces          10;
        startFace       200;
    }
    left_wall
    {
        type            wall;
        inGroups        1(wall);
        nFaces          10;
        startFace       210;
    }
    defaultFaces
    {
        type            empty;
        inGroups        1(empty);
        nFaces          200;
        startFace       220;
    }
)

// ************************************************************************* //
