/*---------------------------------------------------------------------------*\
| =========                 |                                                 |
| \\      /  F ield         | OpenFOAM: The Open Source CFD Toolbox           |
|  \\    /   O peration     | Version:  1.4                                   |
|   \\  /    A nd           | Web:      http://www.openfoam.org               |
|    \\/     M anipulation  |                                                 |
\*---------------------------------------------------------------------------*/

FoamFile
{
    version         2.0;
    format          ascii;

    root            "";
    case            "";
    instance        "";
    local           "";

    class           volVectorField;
    object          Ub;
}

// * * * * * * * * * * * * * * * * * * * * * * * * * * * * * * * * * * * * * //


dimensions      [0 1 -1 0 0 0 0];

internalField   uniform (0 0.0 0);

boundaryField
{

    top_wall
    {   
   // type          zeroGradient;
      type            fixedValue;
     value           uniform (0 0 0);
    
    } 

    bottom_wall          
    {
    //    type            zeroGradient;;
      type            fixedValue;
    value           uniform (0 0 0);
     ///    value           uniform (-1 0 0);
    }

    right_wall           
    {
   //  type            fixedValue;
   // value           uniform (0 0 0);
    //  value           uniform (0 0 0);
    
    type            zeroGradient;;
    }
    
     left_wall           
    {
   //  type            fixedValue;
     
     type            zeroGradient;;
  //   value           uniform (1000e-2 0 0);
     //best
    // value           uniform (1e1 0 0);
     
     // value           uniform (100.5e0 0 0);
     
    }
    
    
    

    defaultFaces    
    {
        type            empty;
    }
}


// ************************************************************************* //
