/*---------------------------------------------------------------------------*\
| =========                 |                                                 |
| \\      /  F ield         | OpenFOAM: The Open Source CFD Toolbox           |
|  \\    /   O peration     | Version:  1.4                                   |
|   \\  /    A nd           | Web:      http://www.openfoam.org               |
|    \\/     M anipulation  |                                                 |
\*---------------------------------------------------------------------------*/

FoamFile
{
    version         2.0;
    format          ascii;

    root            "";
    case            "";
    instance        "";
    local           "";

    class           dictionary;
    object          blockMeshDict;
}

// * * * * * * * * * * * * * * * * * * * * * * * * * * * * * * * * * * * * * //

convertToMeters 1;

vertices        
(
    (0.00   0.00    0.0)	
    (0.0001  0.00    0.0)
    (0.0001  0.0001   0.0)
    (0.00   0.0001   0.0)
    (0.00   0.00    0.00001)
    (0.0001  0.00    0.00001)
    (0.0001  0.0001   0.00001)
    (0.00   0.0001   0.00001)
);

blocks          
(
    hex (0 1 2 3 4 5 6 7) (10 10 1) simpleGrading (1 1 1)
);

edges           
(
);

patches         
(
    patch bottom_wall  
    (
        (1 5 4 0)
    )
    patch top_wall
    (
        (3 7 6 2)
    )
    wall right_wall 
    (
        (2 6 5 1)
    )
    
     wall left_wall 
    (
        (0 4 7 3)       
    )
    
    
    
    
);

mergePatchPairs
(
);

// ************************************************************************* //
