/*--------------------------------*- C++ -*----------------------------------* \
| =========                 |                                                 |
| \\      /  F ield         | OpenFOAM: The Open Source CFD Toolbox           |
|  \\    /   O peration     | Version:  1.6                                   |
|   \\  /    A nd           | Web:      www.OpenFOAM.org                      |
|    \\/     M anipulation  |                                                 |
\*---------------------------------------------------------------------------*/
FoamFile
{
    version     2.0;
    format      ascii;
    class       dictionary;
    location    "system";
    object      sampleDict;
}
// * * * * * * * * * * * * * * * * * * * * * * * * * * * * * * * * * * * * * //

interpolationScheme cell;

surfaceFormat   raw;

setFormat       raw;

sets            
(
    lineY1
    {
        type    midPoint;
        axis    x;

        start   (0.001   0.15  0.042);
        end     (0.153   0.15  0.042);
        nPoints 100;
    }

    lineY2
    {
        type    midPoint;
        axis    x;

        start   (0.001   0.25  0.042);
        end     (0.153   0.25  0.042);
        nPoints 100;
    }

);

// surfaces        
// (
//     fluid_to_solid_interpolate
//     {
//         type            patch;
//         patches         ("fluid_to_solid");
//         // interpolate     true;
//     }
// );

// fields          (myWallShearStress p);
fields          (alphaMean UaMean);


// ************************************************************************* //
